/*--------------------------------*- C++ -*----------------------------------*\
| =========                 |                                                 |
| \\      /  F ield         | OpenFOAM: The Open Source CFD Toolbox           |
|  \\    /   O peration     | Version:  v2112                                 |
|   \\  /    A nd           | Web:      www.OpenFOAM.org                      |
|    \\/     M anipulation  |                                                 |
\*---------------------------------------------------------------------------*/
FoamFile
{
    version     2.0;
    format      ascii;
    class       volScalarField;
    object      Tv;
}
// * * * * * * * * * * * * * * * * * * * * * * * * * * * * * * * * * * * * * //

#include "include/initialConditions"

dimensions      [0 0 0 1 0 0 0];

internalField   uniform $Tve;

boundaryField
{
    inlet
    {
        type            fixedValue;
        value           uniform $Tve;
    }
    
    fire
    {
        type            smoluchowskiJumpTvMix;
        accommodationCoeff 1;
        Twall           uniform $Twall;
        value           uniform $Twall;
    }
    
    #include "include/boundaries"
}

// ************************************************************************* //
