/*--------------------------------*- C++ -*----------------------------------*\
| =========                 |                                                 |
| \\      /  F ield         | OpenFOAM: The Open Source CFD Toolbox           |
|  \\    /   O peration     | Version:  v2112                                 |
|   \\  /    A nd           | Web:      www.OpenFOAM.org                      |
|    \\/     M anipulation  |                                                 |
\*---------------------------------------------------------------------------*/
FoamFile
{
    version     2.0;
    format      ascii;
    class       dictionary;
    location    "system";
    object      fvSchemes;
}
// * * * * * * * * * * * * * * * * * * * * * * * * * * * * * * * * * * * * * //

fluxScheme            Kurganov;

ddtSchemes
{
    default           Euler;
}

gradSchemes
{
    default           Gauss linear;
  //if convergence is difficult, add:
  //grad(U)           cellLimited Gauss linear 1; 
}

divSchemes
{
    default           none;
    div(tauMC)        Gauss linear;
    div(phi,U)        Gauss limitedLinearV 1;
    
    // Species diffusion
    div(diffusiveFluxes)   Gauss linear;
    
    // Turbulence modelling
    div(phi,k)        Gauss limitedLinear 1;
    div(phi,omega)    Gauss limitedLinear 1;
    div(phi,epsilon)  Gauss limitedLinear 1;
    
    // Needed when there are electrons in the gas mix
    div(U)            Gauss linear;
}

laplacianSchemes
{
    default           Gauss linear corrected;
}

interpolationSchemes
{
    default           linear;
    reconstruct(rho)  vanLeer;
    reconstruct(U)    vanLeerV;
    reconstruct(T)    vanLeer;
}

snGradSchemes
{
    default          corrected;
}

wallDist
{
    method meshWave;
}

// ************************************************************************* //
